Version 4
SHEET 1 1108 680
WIRE 144 -16 64 -16
WIRE -16 80 -16 -16
WIRE 80 80 64 80
WIRE 544 96 528 96
WIRE 144 112 144 -16
WIRE 176 112 144 112
WIRE 544 128 528 128
WIRE 80 144 80 80
WIRE 176 144 80 144
WIRE 544 160 528 160
WIRE -16 176 -16 80
WIRE 176 176 -16 176
WIRE 544 192 528 192
WIRE -16 224 -16 176
FLAG -16 224 0
FLAG 544 192 30%
IOPIN 544 192 Out
FLAG 544 160 50%
IOPIN 544 160 Out
FLAG 544 128 70%
IOPIN 544 128 Out
FLAG 544 96 90%
IOPIN 544 96 Out
SYMBOL Modulo_bateria 352 144 R0
SYMATTR InstName X1
SYMBOL voltage 80 80 R90
WINDOW 0 -32 56 VBottom 2
WINDOW 3 32 56 VTop 2
WINDOW 123 0 0 Left 2
WINDOW 39 0 0 Left 2
SYMATTR InstName V1
SYMATTR Value 5
SYMBOL voltage 80 -16 R90
WINDOW 0 -32 56 VBottom 2
WINDOW 3 -30 -48 VTop 2
WINDOW 123 0 0 Left 2
WINDOW 39 0 0 Left 2
SYMATTR InstName V2
SYMATTR Value SINE(6 6 60)
TEXT 176 232 Left 2 !.tran 100m
TEXT -24 -88 Left 2 ;PWL(0m 0 1m 12 2m 11 3m 10 4m 9 5m 8 6m 7 7m 6 8m 5 9m 4 10m 3)
