Version 4
SHEET 1 1048 680
WIRE 560 -176 528 -176
WIRE 752 -176 736 -176
WIRE 400 16 -208 16
WIRE 528 32 528 -176
WIRE 576 32 528 32
WIRE 736 32 736 -176
WIRE 736 32 688 32
WIRE 336 48 80 48
WIRE -208 64 -208 16
WIRE -208 64 -384 64
WIRE -176 64 -208 64
WIRE 576 64 416 64
WIRE 784 64 688 64
WIRE 352 80 80 80
WIRE 576 96 384 96
WIRE 800 96 688 96
WIRE -176 112 -272 112
WIRE 368 112 80 112
WIRE 400 128 400 16
WIRE 576 128 400 128
WIRE 864 128 688 128
WIRE 416 144 416 64
WIRE 416 144 80 144
WIRE 384 160 384 96
WIRE 576 160 384 160
WIRE 832 160 688 160
WIRE 368 192 368 112
WIRE 576 192 368 192
WIRE 816 192 688 192
WIRE -176 224 -384 224
WIRE 576 224 512 224
WIRE 736 224 688 224
WIRE 384 240 384 160
WIRE 384 240 160 240
WIRE -272 256 -272 112
WIRE -176 256 -272 256
WIRE 384 272 384 240
WIRE 800 272 800 96
WIRE 800 272 384 272
WIRE -272 288 -272 256
WIRE -272 288 -384 288
WIRE 336 288 336 48
WIRE 784 288 784 64
WIRE 784 288 336 288
WIRE 384 304 384 272
WIRE 832 304 832 160
WIRE 832 304 384 304
WIRE 352 320 352 80
WIRE 816 320 816 192
WIRE 816 320 352 320
WIRE 864 320 864 128
WIRE 512 352 512 224
WIRE 736 352 736 224
FLAG 864 320 0
FLAG 560 -176 30%
IOPIN 560 -176 Out
FLAG 512 352 50%
IOPIN 512 352 Out
FLAG 752 -176 90%
IOPIN 752 -176 Out
FLAG 736 352 70%
IOPIN 736 352 Out
FLAG -384 64 Voltage_Reference
IOPIN -384 64 In
FLAG -384 224 Bateria_Input
IOPIN -384 224 In
FLAG -384 288 GND
IOPIN -384 288 In
DATAFLAG 192 48 ""
DATAFLAG 192 80 ""
DATAFLAG 192 112 ""
DATAFLAG 192 144 ""
DATAFLAG 240 240 ""
DATAFLAG -272 64 ""
DATAFLAG -240 224 ""
DATAFLAG -288 288 ""
DATAFLAG 528 -64 ""
DATAFLAG 528 224 ""
DATAFLAG 720 224 ""
DATAFLAG 736 -80 ""
SYMBOL Dividor_Bateria -16 240 R0
SYMATTR InstName X1
SYMBOL Referencia -48 96 R0
SYMATTR InstName X2
SYMBOL Comparador 656 176 R0
SYMATTR InstName X3
